*SOILS: MILLHOPPER FINE SAND
@SITE        COUNTRY          LAT     LONG SCS FAMILY
 Gainesville USA               29.63  -82.37 Loamy,siliceous,hyperthermic Grossarenic Paleudult
@ SCOM  SALB  SLU1  SLDR  SLRO  SLNF  SLPF  SMHB  SMPX  SMKE
    BN  0.11  6.00  0.40    76  1.00  1.00 IB001 IB001 IB001
@  SLB  SLMH  SLLL  SDUL  SSAT  SRGF  SSKS  SBDM  SLOC  SLCL  SLSI  SLCF  SLNI  SLHW  SLHB  SCEC  SADC
    5  -99  .023  .086  .230  1.00  1.75  1.50  0.70  1.50  6.50  0.00  0.05  6.50  -99  2.00  -99
   15  -99  .023  .086  .230  1.00  1.75  1.50  0.60  1.50  6.50  0.00  0.05  6.50  -99  2.00  -99
   30  -99  .023  .086  .230  1.00  1.75  1.50  0.40  1.50  6.50  0.00  0.05  6.50  -99  2.00  -99
   45  -99  .021  .076  .230  1.00  1.75  1.60  0.30  1.50  6.50  0.00  0.04  6.50  -99  2.00  -99
   60  -99  .020  .076  .230  1.00  1.75  1.60  0.20  1.50  6.50  0.00  0.04  6.50  -99  2.00  -99
   90  -99  .024  .079  .230  0.90  1.75  1.60  0.10  1.50  6.50  0.00  0.04  6.50  -99  1.80  -99
  120  -99  .048  .135  .230  0.90  1.75  1.60  0.05  1.50  6.50  0.00  0.09  6.50  -99  1.60  -99
  150  -99  .127  .216  .230  0.90  1.75  1.60  0.03  1.50  6.50  0.00  0.18  6.50  -99  1.40  -99
  180  -99  .127  .216  .230  0.90  1.75  1.60  0.01  1.50  6.50  0.00  0.18  6.50  -99  1.40  -99
