*EXP.DETAILS: UFGA7901 MZ IRRIGATED, MINERAL N
  
*GENERAL
@PEOPLE
 Boote
@ADDRESS
 University of Florida
@SITE
 Gainesville, Florida, USA
  
*TREATMENT DISTRIBUTION
@T  R  O  C  TNAME.................... CU FL SA IC MP MI MF MR MC MT ME MH SM
 1  1  1  0 -N IRRIG                   1  1  1  1  1  0  0  0  0  0  0  0  1
  
*CULTIVARS
@C CR INGENO CNAME
 1 MZ IB0001 MCCURDY 84aa
  
*FIELDS
@L ID_FIELD WSTA.... FLSA..... FLOB FLDT FLDD FLDS FLST SLTX  SLDP  ID_SOIL    FLNAME
 1 UFGA0001 UFGA7901 -99      -99   DR    0    0   00 -99    -99  IBPN910015 -99
  
*SOIL ANALYSIS
@A SADAT  SMHB  SMPX  SMKE  SANAME
 1 -99    -99   -99   -99   -99
  
*INITIAL CONDITIONS
@C   PCR ICDAT  ICRT  ICND  ICRN  ICRE  ICWD ICRES ICREN ICREP ICRIP ICRID ICNAME
 1    MZ   -99   -99   -99   1.0   -99   -99   -99   -99   -99   -99   -99 -99
  
*PLANTING DETAILS
@P PDATE EDATE  PPOP  PPOE  PLME  PLDS  PLRS  PLRD  PLDP  PLWT  PAGE  PENV  PLPH  SPRL                        PLNAME
 1 01135   -99  5.0   5.0     S     R    76   -99   5.0   -99   -99   -99   -99   -99                        -99
  
*IRRIGATION AND WATER MANAGEMENT
@I  EFIR  IDEP  ITHR  IEPT  IOFF  IAME  IAMT IRNAME
 1   .80    30    50     5    IB   -99   -99 -99
@I IDATE  IROP IRVAL
 1 01135   IR   50
 1 01155   IR   30
 1 01175   IR   30
  
*FERTILIZERS (INORGANIC)
@F FDATE  FMCD  FACD  FDEP  FAMN  FAMP  FAMK  FAMC  FAMO  FOCD FERNAME
 1 01135   FE005   AP    15    60    0     0     0     0   -99 -99
  
*RESIDUES AND ORGANIC FERTILIZER
@R RDATE  RCOD  RAMT  RESN  RESP  RESK  RINP  RDEP  RMET RENAME
 1 -99    -99   -99   -99   -99   -99   -99   -99   -99 -99
  
*CHEMICAL APPLICATIONS
@C CDATE CHCOD CHAMT  CHME CHDEP   CHT..CHNAME
 1 -99   -99    -99   -99   -99   -99..-99
  
*TILLAGE AND ROTATIONS
@T TDATE TIMPL  TDEP TNAME
 1 01134   TI001     20 Moldboard Plow
  
*ENVIRONMENT MODIFICATIONS
@E ODATE EDAY  ERAD  EMAX  EMIN  ERAIN EWIND EDEW  EPAR  ECO2  ENVNAME  
 1 -99   -99   -99   -99   -99   -99    -99   -99   -99   -99   -99
  
*HARVEST DETAILS
@H HDATE  HSTG  HCOM HSIZE   HPC  HBPC HNAME
 1 -99    -99    -99   -99   -99   -99  -99
  
*SIMULATION CONTROLS
@N GENERAL     NYERS NREPS START SDATE RSEED SNAME.................... SMODEL
 1 GE              1     1     S 01135  2150 DEFAULT SIMULATION CONTROL   MZCER048
@N OPTIONS     WATER NITRO SYMBI PHOSP POTAS DISES  CHEM  TILL  CO2
 1 OP              Y     Y     Y     N     N     N     N     Y     M
@N METHODS     WTHER INCON LIGHT EVAPO INFIL PHOTO HYDRO NSWIT MESOM MESEV MESOL
 1 ME              M     M     E     R     S     L     R     1     G     S     2
@N MANAGEMENT  PLANT IRRIG FERTI RESID HARVS
 1 MA              R     R     R     R     M
@N OUTPUTS     FNAME OVVEW SUMRY FROPT GROUT CAOUT WAOUT NIOUT MIOUT DIOUT VBOSE CHOUT OPOUT FMOPT
 1 OU              N     Y     Y     1     Y     Y     Y     Y     N     N     Y     N     Y     A
  
@  AUTOMATIC MANAGEMENT
@N PLANTING    PFRST PLAST PH2OL PH2OU PH2OD PSTMX PSTMN
 1 PL          01135 01150    40   100    30    40    10
@N IRRIGATION  IMDEP ITHRL ITHRU IROFF IMETH IRAMT IREFF
 1 IR             30    50   100 IB001 IB001    10   1.0
@N NITROGEN    NMDEP NMTHR NAMNT NCODE NAOFF
 1 NI             30    50    25 IB001 IB001
@N RESIDUES    RIPCN RTIME RIDEP
 1 RE            100     1    20
@N HARVEST     HFRST HLAST HPCNP HPCNR
 1 HA              0 01270   100     0
